test/data/pti/uiuc-150bus.raw


0 / END OF BUS DATA, BEGIN LOAD DATA
0 / END OF LOAD DATA, BEGIN FIXED SHUNT DATA
0 / END OF FIXED SHUNT DATA, BEGIN GENERATOR DATA
0 / END OF GENERATOR DATA, BEGIN BRANCH DATA
0 / END OF BRANCH DATA, BEGIN TRANSFORMER DATA
1.22393E-4,4.89572E-3, 100.00
1.020000,500.000,   0.000,2042.60,9999.00,9999.00, 0,     0,1.500000,0.510000,1.500000,0.510000,159, 0, 0.00000, 0.00000,  0.000
1.000000, 13.800
2.00000E-4,1.60000E-2, 100.00
1.000000,230.000,   0.000,1000.00,9999.00,9999.00, 0,     0,1.500000,0.510000,1.500000,0.510000,159, 0, 0.00000, 0.00000,  0.000
1.000000,500.000
2.00000E-4,1.60000E-2, 100.00
1.000000,230.000,   0.000,1000.00,9999.00,9999.00, 0,     0,1.500000,0.510000,1.500000,0.510000,159, 0, 0.00000, 0.00000,  0.000
1.000000,500.000
2.00000E-4,1.60000E-2, 100.00
1.000000,230.000,   0.000,1000.00,9999.00,9999.00, 0,     0,1.500000,0.510000,1.500000,0.510000,159, 0, 0.00000, 0.00000,  0.000
1.000000,500.000
2.00000E-4,1.60000E-2, 100.00
1.000000,230.000,   0.000,1000.00,9999.00,9999.00, 0,     0,1.500000,0.510000,1.500000,0.510000,159, 0, 0.00000, 0.00000,  0.000
1.000000,500.000
2.00000E-4,1.60000E-2, 100.00
1.000000,230.000,   0.000,1000.00,9999.00,9999.00, 0,     0,1.500000,0.510000,1.500000,0.510000,159, 0, 0.00000, 0.00000,  0.000
1.000000,500.000
2.00000E-4,1.60000E-2, 100.00
1.000000,230.000,   0.000,1000.00,9999.00,9999.00, 0,     0,1.500000,0.510000,1.500000,0.510000,159, 0, 0.00000, 0.00000,  0.000
1.000000,500.000
2.00000E-4,1.60000E-2, 100.00
1.000000,230.000,   0.000,1000.00,9999.00,9999.00, 0,     0,1.500000,0.510000,1.500000,0.510000,159, 0, 0.00000, 0.00000,  0.000
1.000000,500.000
2.00000E-4,1.60000E-2, 100.00
1.000000,230.000,   0.000,1000.00,9999.00,9999.00, 0,     0,1.500000,0.510000,1.500000,0.510000,159, 0, 0.00000, 0.00000,  0.000
1.000000,500.000
2.00000E-4,1.60000E-2, 100.00
1.000000,230.000,   0.000,1000.00,9999.00,9999.00, 0,     0,1.500000,0.510000,1.500000,0.510000,159, 0, 0.00000, 0.00000,  0.000
1.000000,500.000
2.00000E-4,1.60000E-2, 100.00
1.000000,230.000,   0.000,1000.00,9999.00,9999.00, 0,     0,1.500000,0.510000,1.500000,0.510000,159, 0, 0.00000, 0.00000,  0.000
1.000000,500.000
2.00000E-4,1.60000E-2, 100.00
1.000000,230.000,   0.000,1000.00,9999.00,9999.00, 0,     0,1.500000,0.510000,1.500000,0.510000,159, 0, 0.00000, 0.00000,  0.000
1.000000,500.000
2.00000E-4,1.60000E-2, 100.00
1.000000,230.000,   0.000,1000.00,9999.00,9999.00, 0,     0,1.500000,0.510000,1.500000,0.510000,159, 0, 0.00000, 0.00000,  0.000
1.000000,500.000
2.00000E-4,1.60000E-2, 100.00
1.000000,230.000,   0.000,1000.00,9999.00,9999.00, 0,     0,1.500000,0.510000,1.500000,0.510000,159, 0, 0.00000, 0.00000,  0.000
1.000000,500.000
2.00000E-4,1.60000E-2, 100.00
1.000000,230.000,   0.000,1000.00,9999.00,9999.00, 0,     0,1.500000,0.510000,1.500000,0.510000,159, 0, 0.00000, 0.00000,  0.000
1.000000,500.000
2.00000E-4,1.60000E-2, 100.00
1.000000,230.000,   0.000,1000.00,9999.00,9999.00, 0,     0,1.500000,0.510000,1.500000,0.510000,159, 0, 0.00000, 0.00000,  0.000
1.000000,500.000
2.00000E-4,1.60000E-2, 100.00
1.000000,230.000,   0.000,1000.00,9999.00,9999.00, 0,     0,1.500000,0.510000,1.500000,0.510000,159, 0, 0.00000, 0.00000,  0.000
1.000000,500.000
2.00000E-4,1.60000E-2, 100.00
1.000000,230.000,   0.000,1000.00,9999.00,9999.00, 0,     0,1.500000,0.510000,1.500000,0.510000,159, 0, 0.00000, 0.00000,  0.000
1.000000,500.000
2.00000E-4,1.60000E-2, 100.00
1.000000,230.000,   0.000,1000.00,9999.00,9999.00, 0,     0,1.500000,0.510000,1.500000,0.510000,159, 0, 0.00000, 0.00000,  0.000
1.000000,500.000
2.00000E-4,1.60000E-2, 100.00
1.000000,230.000,   0.000,1000.00,9999.00,9999.00, 0,     0,1.500000,0.510000,1.500000,0.510000,159, 0, 0.00000, 0.00000,  0.000
1.000000,500.000
2.00000E-4,1.60000E-2, 100.00
1.000000,230.000,   0.000,1000.00,9999.00,9999.00, 0,     0,1.500000,0.510000,1.500000,0.510000,159, 0, 0.00000, 0.00000,  0.000
1.000000,500.000
3.65979E-4,1.46391E-2, 100.00
1.020000,500.000,   0.000, 683.10,9999.00,9999.00, 0,     0,1.500000,0.510000,1.500000,0.510000,159, 0, 0.00000, 0.00000,  0.000
1.000000, 13.800
5.50418E-4,2.20167E-2, 100.00
1.020000,500.000,   0.000, 454.20,9999.00,9999.00, 0,     0,1.500000,0.510000,1.500000,0.510000,159, 0, 0.00000, 0.00000,  0.000
1.000000, 13.800
1.93919E-4,7.75675E-3, 100.00
1.020000,500.000,   0.000,1289.20,9999.00,9999.00, 0,     0,1.500000,0.510000,1.500000,0.510000,159, 0, 0.00000, 0.00000,  0.000
1.000000, 13.800
3.94695E-4,1.57878E-2, 100.00
1.020000,500.000,   0.000, 633.40,9999.00,9999.00, 0,     0,1.500000,0.510000,1.500000,0.510000,159, 0, 0.00000, 0.00000,  0.000
1.000000, 13.800
3.94695E-4,1.57878E-2, 100.00
1.020000,500.000,   0.000, 633.40,9999.00,9999.00, 0,     0,1.500000,0.510000,1.500000,0.510000,159, 0, 0.00000, 0.00000,  0.000
1.000000, 13.800
9.08430E-4,3.63372E-2, 100.00
1.020000,500.000,   0.000, 275.20,9999.00,9999.00, 0,     0,1.500000,0.510000,1.500000,0.510000,159, 0, 0.00000, 0.00000,  0.000
1.000000, 13.800
3.68080E-4,1.47232E-2, 100.00
1.020000,500.000,   0.000, 679.20,9999.00,9999.00, 0,     0,1.500000,0.510000,1.500000,0.510000,159, 0, 0.00000, 0.00000,  0.000
1.000000, 13.800
3.68080E-4,1.47232E-2, 100.00
1.020000,500.000,   0.000, 679.20,9999.00,9999.00, 0,     0,1.500000,0.510000,1.500000,0.510000,159, 0, 0.00000, 0.00000,  0.000
1.000000, 13.800
3.68080E-4,1.47232E-2, 100.00
1.020000,500.000,   0.000, 679.20,9999.00,9999.00, 0,     0,1.500000,0.510000,1.500000,0.510000,159, 0, 0.00000, 0.00000,  0.000
1.000000, 13.800
1.22393E-4,4.89572E-3, 100.00
1.020000,500.000,   0.000,2042.60,9999.00,9999.00, 0,     0,1.500000,0.510000,1.500000,0.510000,159, 0, 0.00000, 0.00000,  0.000
1.000000, 13.800
5.63380E-4,2.25352E-2, 100.00
1.020000,500.000,   0.000, 443.75,9999.00,9999.00, 0,     0,1.500000,0.510000,1.500000,0.510000,159, 0, 0.00000, 0.00000,  0.000
1.000000, 13.800
5.63380E-4,2.25352E-2, 100.00
1.020000,500.000,   0.000, 443.75,9999.00,9999.00, 0,     0,1.500000,0.510000,1.500000,0.510000,159, 0, 0.00000, 0.00000,  0.000
1.000000, 13.800
1.88679E-4,7.54717E-3, 100.00
1.020000,500.000,   0.000,1325.00,9999.00,9999.00, 0,     0,1.500000,0.510000,1.500000,0.510000,159, 0, 0.00000, 0.00000,  0.000
1.000000, 13.800
1.88679E-4,7.54717E-3, 100.00
1.020000,500.000,   0.000,1325.00,9999.00,9999.00, 0,     0,1.500000,0.510000,1.500000,0.510000,159, 0, 0.00000, 0.00000,  0.000
1.000000, 13.800
3.68976E-4,1.47591E-2, 100.00
1.020000,500.000,   0.000, 677.55,9999.00,9999.00, 0,     0,1.500000,0.510000,1.500000,0.510000,159, 0, 0.00000, 0.00000,  0.000
1.000000, 13.800
3.68976E-4,1.47591E-2, 100.00
1.020000,500.000,   0.000, 677.55,9999.00,9999.00, 0,     0,1.500000,0.510000,1.500000,0.510000,159, 0, 0.00000, 0.00000,  0.000
1.000000, 13.800
3.68976E-4,1.47591E-2, 100.00
1.020000,500.000,   0.000, 677.55,9999.00,9999.00, 0,     0,1.500000,0.510000,1.500000,0.510000,159, 0, 0.00000, 0.00000,  0.000
1.000000, 13.800
3.68976E-4,1.47591E-2, 100.00
1.020000,500.000,   0.000, 677.55,9999.00,9999.00, 0,     0,1.500000,0.510000,1.500000,0.510000,159, 0, 0.00000, 0.00000,  0.000
1.000000, 13.800
2.46305E-4,9.85222E-3, 100.00
1.020000,500.000,   0.000,1015.00,9999.00,9999.00, 0,     0,1.500000,0.510000,1.500000,0.510000,159, 0, 0.00000, 0.00000,  0.000
1.000000, 13.800
7.26533E-4,2.90613E-2, 100.00
1.020000,500.000,   0.000, 344.10,9999.00,9999.00, 0,     0,1.500000,0.510000,1.500000,0.510000,159, 0, 0.00000, 0.00000,  0.000
1.000000, 13.800
3.13676E-4,1.25471E-2, 100.00
1.020000,500.000,   0.000, 797.00,9999.00,9999.00, 0,     0,1.500000,0.510000,1.500000,0.510000,159, 0, 0.00000, 0.00000,  0.000
1.000000, 13.800
3.13676E-4,1.25471E-2, 100.00
1.020000,500.000,   0.000, 797.00,9999.00,9999.00, 0,     0,1.500000,0.510000,1.500000,0.510000,159, 0, 0.00000, 0.00000,  0.000
1.000000, 13.800
3.13676E-4,1.25471E-2, 100.00
1.020000,500.000,   0.000, 797.00,9999.00,9999.00, 0,     0,1.500000,0.510000,1.500000,0.510000,159, 0, 0.00000, 0.00000,  0.000
1.000000, 13.800
1.34738E-4,5.38953E-3, 100.00
1.020000,500.000,   0.000,1855.45,9999.00,9999.00, 0,     0,1.500000,0.510000,1.500000,0.510000,159, 0, 0.00000, 0.00000,  0.000
1.000000, 13.800
1.34738E-4,5.38953E-3, 100.00
1.020000,500.000,   0.000,1855.45,9999.00,9999.00, 0,     0,1.500000,0.510000,1.500000,0.510000,159, 0, 0.00000, 0.00000,  0.000
1.000000, 13.800
5.47046E-3,2.18818E-1, 100.00
1.020000,230.000,   0.000,  45.70,9999.00,9999.00, 0,     0,1.500000,0.510000,1.500000,0.510000,159, 0, 0.00000, 0.00000,  0.000
1.000000, 13.800
2.00000E-4,1.60000E-2, 100.00
1.000000,230.000,   0.000,1000.00,9999.00,9999.00, 0,     0,1.500000,0.510000,1.500000,0.510000,159, 0, 0.00000, 0.00000,  0.000
1.000000,500.000
2.00000E-4,1.60000E-2, 100.00
1.000000,230.000,   0.000,1000.00,9999.00,9999.00, 0,     0,1.500000,0.510000,1.500000,0.510000,159, 0, 0.00000, 0.00000,  0.000
1.000000,500.000
2.00000E-4,1.60000E-2, 100.00
1.000000,230.000,   0.000,1000.00,9999.00,9999.00, 0,     0,1.500000,0.510000,1.500000,0.510000,159, 0, 0.00000, 0.00000,  0.000
1.000000,500.000
2.00000E-4,1.60000E-2, 100.00
1.000000,230.000,   0.000,1000.00,9999.00,9999.00, 0,     0,1.500000,0.510000,1.500000,0.510000,159, 0, 0.00000, 0.00000,  0.000
1.000000,500.000
2.00000E-4,1.60000E-2, 100.00
1.000000,230.000,   0.000,1000.00,9999.00,9999.00, 0,     0,1.500000,0.510000,1.500000,0.510000,159, 0, 0.00000, 0.00000,  0.000
1.000000,500.000
2.00000E-4,1.60000E-2, 100.00
1.000000,230.000,   0.000,1000.00,9999.00,9999.00, 0,     0,1.500000,0.510000,1.500000,0.510000,159, 0, 0.00000, 0.00000,  0.000
1.000000,500.000
2.00000E-4,1.60000E-2, 100.00
1.000000,230.000,   0.000,1000.00,9999.00,9999.00, 0,     0,1.500000,0.510000,1.500000,0.510000,159, 0, 0.00000, 0.00000,  0.000
1.000000,500.000
2.00000E-4,1.60000E-2, 100.00
1.000000,230.000,   0.000,1000.00,9999.00,9999.00, 0,     0,1.500000,0.510000,1.500000,0.510000,159, 0, 0.00000, 0.00000,  0.000
1.000000,500.000
2.00000E-4,1.60000E-2, 100.00
1.000000,230.000,   0.000,1000.00,9999.00,9999.00, 0,     0,1.500000,0.510000,1.500000,0.510000,159, 0, 0.00000, 0.00000,  0.000
1.000000,500.000
2.00000E-4,1.60000E-2, 100.00
1.000000,230.000,   0.000,1000.00,9999.00,9999.00, 0,     0,1.500000,0.510000,1.500000,0.510000,159, 0, 0.00000, 0.00000,  0.000
1.000000,500.000
2.00000E-4,1.60000E-2, 100.00
1.000000,230.000,   0.000,1000.00,9999.00,9999.00, 0,     0,1.500000,0.510000,1.500000,0.510000,159, 0, 0.00000, 0.00000,  0.000
1.000000,500.000
2.00000E-4,1.60000E-2, 100.00
1.000000,230.000,   0.000,1000.00,9999.00,9999.00, 0,     0,1.500000,0.510000,1.500000,0.510000,159, 0, 0.00000, 0.00000,  0.000
1.000000,500.000
2.00000E-4,1.60000E-2, 100.00
1.000000,230.000,   0.000,1000.00,9999.00,9999.00, 0,     0,1.500000,0.510000,1.500000,0.510000,159, 0, 0.00000, 0.00000,  0.000
1.000000,500.000
0 / END OF TRANSFORMER DATA, BEGIN AREA DATA
0 / END OF AREA DATA, BEGIN TWO-TERMINAL DC DATA
0 / END OF TWO-TERMINAL DC DATA, BEGIN VOLTAGE SOURCE CONVERTER DATA
0 / END OF VOLTAGE SOURCE CONVERTER DATA, BEGIN IMPEDANCE CORRECTION DATA
0 / END OF IMPEDANCE CORRECTION DATA, BEGIN MULTI-TERMINAL DC DATA
0 / END OF MULTI-TERMINAL DC DATA, BEGIN MULTI-SECTION LINE DATA
0 / END OF MULTI-SECTION LINE DATA, BEGIN ZONE DATA
0 / END OF ZONE DATA, BEGIN INTER-AREA TRANSFER DATA
0 / END OF INTER-AREA TRANSFER DATA, BEGIN OWNER DATA
0 / END OF OWNER DATA, BEGIN FACTS CONTROL DEVICE DATA
0 / END OF FACTS CONTROL DEVICE DATA, BEGIN SWITCHED SHUNT DATA
0 /END OF SWITCHED SHUNT DATA, BEGIN GNE DEVICE DATA
0 /END OF GNE DEVICE DATA
Q
